<?xml version="1.0" encoding="UTF-8"?>

<!-- generated on 2022-12-07 05:38:55 by Eclipse SUMO netedit Version 1.15.0
<configuration xmlns:xsi="http://www.w3.org/2001/XMLSchema-instance" xsi:noNamespaceSchemaLocation="http://sumo.dlr.de/xsd/netconvertConfiguration.xsd">

    <input>
        <sumo-net-file value="D:\Dissertation\scenario\sample.net.xml"/>
    </input>

    <output>
        <output-file value="D:\Dissertation\scenario\sample.net.xml"/>
    </output>

    <processing>
        <geometry.min-radius.fix.railways value="false"/>
        <geometry.max-grade.fix value="false"/>
        <offset.disable-normalization value="true"/>
        <lefthand value="0"/>
    </processing>

    <junctions>
        <no-turnarounds value="true"/>
        <junctions.corner-detail value="5"/>
        <junctions.limit-turn-speed value="5.50"/>
        <rectangular-lane-cut value="0"/>
    </junctions>

    <pedestrian>
        <walkingareas value="0"/>
    </pedestrian>

</configuration>
-->

<net version="1.9" junctionCornerDetail="5" limitTurnSpeed="5.50" xmlns:xsi="http://www.w3.org/2001/XMLSchema-instance" xsi:noNamespaceSchemaLocation="http://sumo.dlr.de/xsd/net_file.xsd">

    <location netOffset="0.00,0.00" convBoundary="-200.00,-200.00,200.00,0.00" origBoundary="-10000000000.00,-10000000000.00,10000000000.00,10000000000.00" projParameter="!"/>

    <edge id=":intersection_1_0" function="internal">
        <lane id=":intersection_1_0_0" index="0" speed="13.89" length="14.40" shape="-101.60,-92.80 -101.60,-107.20"/>
    </edge>
    <edge id=":intersection_1_1" function="internal">
        <lane id=":intersection_1_1_0" index="0" speed="13.89" length="14.40" shape="-92.80,-98.40 -107.20,-98.40"/>
    </edge>
    <edge id=":intersection_1_2" function="internal">
        <lane id=":intersection_1_2_0" index="0" speed="13.89" length="14.40" shape="-98.40,-107.20 -98.40,-92.80"/>
    </edge>
    <edge id=":intersection_1_3" function="internal">
        <lane id=":intersection_1_3_0" index="0" speed="13.89" length="14.40" shape="-107.20,-101.60 -92.80,-101.60"/>
    </edge>
    <edge id=":intersection_2_0" function="internal">
        <lane id=":intersection_2_0_0" index="0" speed="6.51" length="9.03" shape="98.40,-92.80 98.05,-95.25 97.00,-97.00 95.25,-98.05 92.80,-98.40"/>
    </edge>
    <edge id=":intersection_2_1" function="internal">
        <lane id=":intersection_2_1_0" index="0" speed="6.51" length="9.03" shape="107.20,-98.40 104.75,-98.05 103.00,-97.00 101.95,-95.25 101.60,-92.80"/>
    </edge>
    <edge id=":intersection_2_2" function="internal">
        <lane id=":intersection_2_2_0" index="0" speed="13.89" length="14.40" shape="107.20,-98.40 92.80,-98.40"/>
    </edge>
    <edge id=":intersection_2_3" function="internal">
        <lane id=":intersection_2_3_0" index="0" speed="13.89" length="14.40" shape="92.80,-101.60 107.20,-101.60"/>
    </edge>

    <edge id="-E0" from="intersection_1" to="J13" priority="-1">
        <lane id="-E0_0" index="0" speed="13.89" length="92.80" shape="-98.40,-92.80 -98.40,0.00"/>
    </edge>
    <edge id="-E1" from="J12" to="intersection_2" priority="-1">
        <lane id="-E1_0" index="0" speed="13.89" length="92.80" shape="98.40,0.00 98.40,-92.80"/>
    </edge>
    <edge id="-E11" from="J11" to="intersection_2" priority="-1">
        <lane id="-E11_0" index="0" speed="13.89" length="92.80" shape="200.00,-98.40 107.20,-98.40"/>
    </edge>
    <edge id="-E3" from="intersection_2" to="intersection_1" priority="-1">
        <lane id="-E3_0" index="0" speed="13.89" length="185.60" shape="92.80,-98.40 -92.80,-98.40"/>
    </edge>
    <edge id="-E8" from="J8" to="intersection_1" priority="-1">
        <lane id="-E8_0" index="0" speed="13.89" length="92.80" shape="-200.00,-101.60 -107.20,-101.60"/>
    </edge>
    <edge id="-E9" from="J9" to="intersection_1" priority="-1">
        <lane id="-E9_0" index="0" speed="13.89" length="92.80" shape="-98.40,-200.00 -98.40,-107.20"/>
    </edge>
    <edge id="E0" from="J13" to="intersection_1" priority="-1">
        <lane id="E0_0" index="0" speed="13.89" length="92.80" shape="-101.60,0.00 -101.60,-92.80"/>
    </edge>
    <edge id="E1" from="intersection_2" to="J12" priority="-1">
        <lane id="E1_0" index="0" speed="13.89" length="92.80" shape="101.60,-92.80 101.60,0.00"/>
    </edge>
    <edge id="E11" from="intersection_2" to="J11" priority="-1">
        <lane id="E11_0" index="0" speed="13.89" length="92.80" shape="107.20,-101.60 200.00,-101.60"/>
    </edge>
    <edge id="E3" from="intersection_1" to="intersection_2" priority="-1">
        <lane id="E3_0" index="0" speed="13.89" length="185.60" shape="-92.80,-101.60 92.80,-101.60"/>
    </edge>
    <edge id="E8" from="intersection_1" to="J8" priority="-1">
        <lane id="E8_0" index="0" speed="13.89" length="92.80" shape="-107.20,-98.40 -200.00,-98.40"/>
    </edge>
    <edge id="E9" from="intersection_1" to="J9" priority="-1">
        <lane id="E9_0" index="0" speed="13.89" length="92.80" shape="-101.60,-107.20 -101.60,-200.00"/>
    </edge>

    <tlLogic id="intersection_1" type="static" programID="0" offset="0">
        <phase duration="42" state="GGrrGGrr"/>
        <phase duration="42" state="rrGGrrGG"/>
    </tlLogic>
    <tlLogic id="intersection_2" type="static" programID="0" offset="0">
        <phase duration="35" state="rGGG"/>
        <phase duration="35" state="GrrG"/>
    </tlLogic>

    <junction id="J11" type="dead_end" x="200.00" y="-100.00" incLanes="E11_0" intLanes="" shape="200.00,-100.00 200.00,-103.20 200.00,-100.00"/>
    <junction id="J12" type="dead_end" x="100.00" y="0.00" incLanes="E1_0" intLanes="" shape="100.00,0.00 103.20,0.00 100.00,0.00"/>
    <junction id="J13" type="dead_end" x="-100.00" y="0.00" incLanes="-E0_0" intLanes="" shape="-100.00,0.00 -96.80,0.00 -100.00,0.00"/>
    <junction id="J8" type="dead_end" x="-200.00" y="-100.00" incLanes="E8_0" intLanes="" shape="-200.00,-100.00 -200.00,-96.80 -200.00,-100.00"/>
    <junction id="J9" type="dead_end" x="-100.00" y="-200.00" incLanes="E9_0" intLanes="" shape="-100.00,-200.00 -103.20,-200.00 -100.00,-200.00"/>
    <junction id="intersection_1" type="traffic_light" x="-100.00" y="-100.00" incLanes="E0_0 -E3_0 -E9_0 -E8_0" intLanes=":intersection_1_0_0 :intersection_1_1_0 :intersection_1_2_0 :intersection_1_3_0" shape="-103.20,-92.80 -96.80,-92.80 -96.36,-95.02 -95.80,-95.80 -95.02,-96.36 -94.02,-96.69 -92.80,-96.80 -92.80,-103.20 -95.02,-103.64 -95.80,-104.20 -96.36,-104.98 -96.69,-105.98 -96.80,-107.20 -103.20,-107.20 -103.64,-104.98 -104.20,-104.20 -104.98,-103.64 -105.98,-103.31 -107.20,-103.20 -107.20,-96.80 -104.98,-96.36 -104.20,-95.80 -103.64,-95.02 -103.31,-94.02">
        <request index="0" response="0000" foes="1010" cont="0"/>
        <request index="1" response="0101" foes="0101" cont="0"/>
        <request index="2" response="0000" foes="1010" cont="0"/>
        <request index="3" response="0101" foes="0101" cont="0"/>
    </junction>
    <junction id="intersection_2" type="traffic_light" x="100.00" y="-100.00" incLanes="-E1_0 -E11_0 E3_0" intLanes=":intersection_2_0_0 :intersection_2_1_0 :intersection_2_2_0 :intersection_2_3_0" shape="96.80,-92.80 103.20,-92.80 103.64,-95.02 104.20,-95.80 104.98,-96.36 105.98,-96.69 107.20,-96.80 107.20,-103.20 92.80,-103.20 92.80,-96.80 95.02,-96.36 95.80,-95.80 96.36,-95.02 96.69,-94.02">
        <request index="0" response="0100" foes="0100" cont="0"/>
        <request index="1" response="0000" foes="0000" cont="0"/>
        <request index="2" response="0000" foes="0001" cont="0"/>
        <request index="3" response="0000" foes="0000" cont="0"/>
    </junction>

    <connection from="-E1" to="-E3" fromLane="0" toLane="0" via=":intersection_2_0_0" tl="intersection_2" linkIndex="0" dir="r" state="o"/>
    <connection from="-E11" to="E1" fromLane="0" toLane="0" via=":intersection_2_1_0" tl="intersection_2" linkIndex="1" dir="r" state="O"/>
    <connection from="-E11" to="-E3" fromLane="0" toLane="0" via=":intersection_2_2_0" tl="intersection_2" linkIndex="2" dir="s" state="O"/>
    <connection from="-E3" to="E8" fromLane="0" toLane="0" via=":intersection_1_1_0" tl="intersection_1" linkIndex="2" dir="s" state="o"/>
    <connection from="-E8" to="E3" fromLane="0" toLane="0" via=":intersection_1_3_0" tl="intersection_1" linkIndex="6" dir="s" state="o"/>
    <connection from="-E9" to="-E0" fromLane="0" toLane="0" via=":intersection_1_2_0" tl="intersection_1" linkIndex="4" dir="s" state="O"/>
    <connection from="E0" to="E9" fromLane="0" toLane="0" via=":intersection_1_0_0" tl="intersection_1" linkIndex="0" dir="s" state="O"/>
    <connection from="E3" to="E11" fromLane="0" toLane="0" via=":intersection_2_3_0" tl="intersection_2" linkIndex="3" dir="s" state="O"/>

    <connection from=":intersection_1_0" to="E9" fromLane="0" toLane="0" dir="s" state="M"/>
    <connection from=":intersection_1_1" to="E8" fromLane="0" toLane="0" dir="s" state="M"/>
    <connection from=":intersection_1_2" to="-E0" fromLane="0" toLane="0" dir="s" state="M"/>
    <connection from=":intersection_1_3" to="E3" fromLane="0" toLane="0" dir="s" state="M"/>
    <connection from=":intersection_2_0" to="-E3" fromLane="0" toLane="0" dir="r" state="M"/>
    <connection from=":intersection_2_1" to="E1" fromLane="0" toLane="0" dir="r" state="M"/>
    <connection from=":intersection_2_2" to="-E3" fromLane="0" toLane="0" dir="s" state="M"/>
    <connection from=":intersection_2_3" to="E11" fromLane="0" toLane="0" dir="s" state="M"/>

</net>
