<routes>
        <vType id="type_0" accel="0.8" decel="4.5" sigma="0.5" length="5" minGap="2.5" maxSpeed="15.00" guiShape="passenger" emissionClass="HBEFA3/PC"/>
        <route edges="E0 E9" color="yellow" id="route_0"/>
        <route edges="-E9 -E0" color="yellow" id="route_1"/>
        <route edges="-E1 -E3 E8" color="yellow" id="route_2"/>
        <route edges="-E11 E1" color="yellow" id="route_3"/>
        <route edges="-E8 E3 E11" color="yellow" id="route_4"/>
        <route edges="-E11 -E3 E8" color="yellow" id="route_5"/>
    <vehicle id="vehicle_0" type="type_0" route="route_0" depart="0" color="0,1,0"/>
    <vehicle id="vehicle_1" type="type_0" route="route_1" depart="0" color="0,1,0"/>
    <vehicle id="vehicle_2" type="type_0" route="route_2" depart="0" color="0,1,0"/>
    <vehicle id="vehicle_3" type="type_0" route="route_3" depart="0" color="0,1,0"/>
    <vehicle id="vehicle_4" type="type_0" route="route_4" depart="0" color="0,1,0"/>
    <vehicle id="vehicle_5" type="type_0" route="route_5" depart="0" color="0,1,0"/>
    <vehicle id="vehicle_6" type="type_0" route="route_1" depart="1" color="0,1,0"/>
    <vehicle id="vehicle_7" type="type_0" route="route_3" depart="7" color="0,1,0"/>
    <vehicle id="vehicle_8" type="type_0" route="route_2" depart="9" color="0,1,0"/>
    <vehicle id="vehicle_9" type="type_0" route="route_3" depart="9" color="0,1,0"/>
    <vehicle id="vehicle_10" type="type_0" route="route_3" depart="10" color="0,1,0"/>
    <vehicle id="vehicle_11" type="type_0" route="route_3" depart="17" color="0,1,0"/>
    <vehicle id="vehicle_12" type="type_0" route="route_2" depart="25" color="0,1,0"/>
    <vehicle id="vehicle_13" type="type_0" route="route_2" depart="26" color="0,1,0"/>
    <vehicle id="vehicle_14" type="type_0" route="route_0" depart="30" color="0,1,0"/>
    <vehicle id="vehicle_15" type="type_0" route="route_2" depart="32" color="0,1,0"/>
    <vehicle id="vehicle_16" type="type_0" route="route_5" depart="33" color="0,1,0"/>
    <vehicle id="vehicle_17" type="type_0" route="route_3" depart="38" color="0,1,0"/>
    <vehicle id="vehicle_18" type="type_0" route="route_4" depart="40" color="0,1,0"/>
    <vehicle id="vehicle_19" type="type_0" route="route_5" depart="40" color="0,1,0"/>
    <vehicle id="vehicle_20" type="type_0" route="route_5" depart="41" color="0,1,0"/>
    <vehicle id="vehicle_21" type="type_0" route="route_2" depart="55" color="0,1,0"/>
    <vehicle id="vehicle_22" type="type_0" route="route_0" depart="61" color="0,1,0"/>
    <vehicle id="vehicle_23" type="type_0" route="route_3" depart="64" color="0,1,0"/>
    <vehicle id="vehicle_24" type="type_0" route="route_1" depart="67" color="0,1,0"/>
    <vehicle id="vehicle_25" type="type_0" route="route_3" depart="69" color="0,1,0"/>
    <vehicle id="vehicle_26" type="type_0" route="route_0" depart="73" color="0,1,0"/>
    <vehicle id="vehicle_27" type="type_0" route="route_0" depart="75" color="0,1,0"/>
    <vehicle id="vehicle_28" type="type_0" route="route_0" depart="78" color="0,1,0"/>
    <vehicle id="vehicle_29" type="type_0" route="route_3" depart="81" color="0,1,0"/>
    <vehicle id="vehicle_30" type="type_0" route="route_4" depart="89" color="0,1,0"/>
    <vehicle id="vehicle_31" type="type_0" route="route_2" depart="90" color="0,1,0"/>
    <vehicle id="vehicle_32" type="type_0" route="route_5" depart="90" color="0,1,0"/>
    <vehicle id="vehicle_33" type="type_0" route="route_3" depart="108" color="0,1,0"/>
    <vehicle id="vehicle_34" type="type_0" route="route_5" depart="113" color="0,1,0"/>
    <vehicle id="vehicle_35" type="type_0" route="route_5" depart="127" color="0,1,0"/>
    <vehicle id="vehicle_36" type="type_0" route="route_2" depart="129" color="0,1,0"/>
    <vehicle id="vehicle_37" type="type_0" route="route_0" depart="134" color="0,1,0"/>
    <vehicle id="vehicle_38" type="type_0" route="route_4" depart="138" color="0,1,0"/>
    <vehicle id="vehicle_39" type="type_0" route="route_5" depart="151" color="0,1,0"/>
    <vehicle id="vehicle_40" type="type_0" route="route_1" depart="161" color="0,1,0"/>
    <vehicle id="vehicle_41" type="type_0" route="route_0" depart="162" color="0,1,0"/>
    <vehicle id="vehicle_42" type="type_0" route="route_0" depart="163" color="0,1,0"/>
    <vehicle id="vehicle_43" type="type_0" route="route_0" depart="170" color="0,1,0"/>
    <vehicle id="vehicle_44" type="type_0" route="route_5" depart="176" color="0,1,0"/>
    <vehicle id="vehicle_45" type="type_0" route="route_5" depart="178" color="0,1,0"/>
    <vehicle id="vehicle_46" type="type_0" route="route_0" depart="180" color="0,1,0"/>
    <vehicle id="vehicle_47" type="type_0" route="route_2" depart="182" color="0,1,0"/>
    <vehicle id="vehicle_48" type="type_0" route="route_0" depart="183" color="0,1,0"/>
    <vehicle id="vehicle_49" type="type_0" route="route_5" depart="185" color="0,1,0"/>
    <vehicle id="vehicle_50" type="type_0" route="route_2" depart="191" color="0,1,0"/>
    <vehicle id="vehicle_51" type="type_0" route="route_1" depart="197" color="0,1,0"/>
    <vehicle id="vehicle_52" type="type_0" route="route_4" depart="197" color="0,1,0"/>
    <vehicle id="vehicle_53" type="type_0" route="route_5" depart="198" color="0,1,0"/>
    <vehicle id="vehicle_54" type="type_0" route="route_1" depart="204" color="0,1,0"/>
    <vehicle id="vehicle_55" type="type_0" route="route_2" depart="204" color="0,1,0"/>
    <vehicle id="vehicle_56" type="type_0" route="route_4" depart="206" color="0,1,0"/>
    <vehicle id="vehicle_57" type="type_0" route="route_4" depart="211" color="0,1,0"/>
    <vehicle id="vehicle_58" type="type_0" route="route_0" depart="213" color="0,1,0"/>
    <vehicle id="vehicle_59" type="type_0" route="route_3" depart="216" color="0,1,0"/>
    <vehicle id="vehicle_60" type="type_0" route="route_0" depart="218" color="0,1,0"/>
    <vehicle id="vehicle_61" type="type_0" route="route_3" depart="230" color="0,1,0"/>
    <vehicle id="vehicle_62" type="type_0" route="route_2" depart="232" color="0,1,0"/>
    <vehicle id="vehicle_63" type="type_0" route="route_1" depart="235" color="0,1,0"/>
    <vehicle id="vehicle_64" type="type_0" route="route_4" depart="250" color="0,1,0"/>
    <vehicle id="vehicle_65" type="type_0" route="route_2" depart="256" color="0,1,0"/>
    <vehicle id="vehicle_66" type="type_0" route="route_3" depart="260" color="0,1,0"/>
    <vehicle id="vehicle_67" type="type_0" route="route_3" depart="267" color="0,1,0"/>
    <vehicle id="vehicle_68" type="type_0" route="route_3" depart="268" color="0,1,0"/>
    <vehicle id="vehicle_69" type="type_0" route="route_1" depart="269" color="0,1,0"/>
    <vehicle id="vehicle_70" type="type_0" route="route_1" depart="278" color="0,1,0"/>
    <vehicle id="vehicle_71" type="type_0" route="route_3" depart="279" color="0,1,0"/>
    <vehicle id="vehicle_72" type="type_0" route="route_5" depart="280" color="0,1,0"/>
    <vehicle id="vehicle_73" type="type_0" route="route_1" depart="285" color="0,1,0"/>
    <vehicle id="vehicle_74" type="type_0" route="route_1" depart="296" color="0,1,0"/>
    <vehicle id="vehicle_75" type="type_0" route="route_2" depart="300" color="0,1,0"/>
    <vehicle id="vehicle_76" type="type_0" route="route_4" depart="305" color="0,1,0"/>
    <vehicle id="vehicle_77" type="type_0" route="route_2" depart="315" color="0,1,0"/>
    <vehicle id="vehicle_78" type="type_0" route="route_1" depart="327" color="0,1,0"/>
    <vehicle id="vehicle_79" type="type_0" route="route_2" depart="333" color="0,1,0"/>
    <vehicle id="vehicle_80" type="type_0" route="route_1" depart="336" color="0,1,0"/>
    <vehicle id="vehicle_81" type="type_0" route="route_2" depart="341" color="0,1,0"/>
    <vehicle id="vehicle_82" type="type_0" route="route_5" depart="342" color="0,1,0"/>
    <vehicle id="vehicle_83" type="type_0" route="route_2" depart="350" color="0,1,0"/>
    <vehicle id="vehicle_84" type="type_0" route="route_0" depart="354" color="0,1,0"/>
    <vehicle id="vehicle_85" type="type_0" route="route_1" depart="360" color="0,1,0"/>
    <vehicle id="vehicle_86" type="type_0" route="route_3" depart="364" color="0,1,0"/>
    <vehicle id="vehicle_87" type="type_0" route="route_1" depart="367" color="0,1,0"/>
    <vehicle id="vehicle_88" type="type_0" route="route_5" depart="368" color="0,1,0"/>
    <vehicle id="vehicle_89" type="type_0" route="route_0" depart="369" color="0,1,0"/>
    <vehicle id="vehicle_90" type="type_0" route="route_0" depart="370" color="0,1,0"/>
    <vehicle id="vehicle_91" type="type_0" route="route_5" depart="370" color="0,1,0"/>
    <vehicle id="vehicle_92" type="type_0" route="route_0" depart="373" color="0,1,0"/>
    <vehicle id="vehicle_93" type="type_0" route="route_4" depart="378" color="0,1,0"/>
    <vehicle id="vehicle_94" type="type_0" route="route_1" depart="388" color="0,1,0"/>
    <vehicle id="vehicle_95" type="type_0" route="route_1" depart="389" color="0,1,0"/>
    <vehicle id="vehicle_96" type="type_0" route="route_4" depart="394" color="0,1,0"/>
    <vehicle id="vehicle_97" type="type_0" route="route_5" depart="399" color="0,1,0"/>
    <vehicle id="vehicle_98" type="type_0" route="route_1" depart="403" color="0,1,0"/>
    <vehicle id="vehicle_99" type="type_0" route="route_2" depart="418" color="0,1,0"/>
    <vehicle id="vehicle_100" type="type_0" route="route_0" depart="420" color="0,1,0"/>
    <vehicle id="vehicle_101" type="type_0" route="route_0" depart="421" color="0,1,0"/>
    <vehicle id="vehicle_102" type="type_0" route="route_5" depart="421" color="0,1,0"/>
    <vehicle id="vehicle_103" type="type_0" route="route_5" depart="455" color="0,1,0"/>
    <vehicle id="vehicle_104" type="type_0" route="route_0" depart="459" color="0,1,0"/>
    <vehicle id="vehicle_105" type="type_0" route="route_0" depart="468" color="0,1,0"/>
    <vehicle id="vehicle_106" type="type_0" route="route_2" depart="477" color="0,1,0"/>
    <vehicle id="vehicle_107" type="type_0" route="route_5" depart="478" color="0,1,0"/>
    <vehicle id="vehicle_108" type="type_0" route="route_2" depart="480" color="0,1,0"/>
    <vehicle id="vehicle_109" type="type_0" route="route_5" depart="495" color="0,1,0"/>
    <vehicle id="vehicle_110" type="type_0" route="route_0" depart="498" color="0,1,0"/>
    <vehicle id="vehicle_111" type="type_0" route="route_2" depart="498" color="0,1,0"/>
    <vehicle id="vehicle_112" type="type_0" route="route_2" depart="507" color="0,1,0"/>
    <vehicle id="vehicle_113" type="type_0" route="route_1" depart="509" color="0,1,0"/>
    <vehicle id="vehicle_114" type="type_0" route="route_1" depart="514" color="0,1,0"/>
    <vehicle id="vehicle_115" type="type_0" route="route_2" depart="527" color="0,1,0"/>
    <vehicle id="vehicle_116" type="type_0" route="route_3" depart="544" color="0,1,0"/>
    <vehicle id="vehicle_117" type="type_0" route="route_3" depart="554" color="0,1,0"/>
    <vehicle id="vehicle_118" type="type_0" route="route_0" depart="560" color="0,1,0"/>
    <vehicle id="vehicle_119" type="type_0" route="route_4" depart="560" color="0,1,0"/>
    <vehicle id="vehicle_120" type="type_0" route="route_4" depart="564" color="0,1,0"/>
    <vehicle id="vehicle_121" type="type_0" route="route_3" depart="584" color="0,1,0"/>
    <vehicle id="vehicle_122" type="type_0" route="route_1" depart="587" color="0,1,0"/>
    <vehicle id="vehicle_123" type="type_0" route="route_5" depart="587" color="0,1,0"/>
    <vehicle id="vehicle_124" type="type_0" route="route_0" depart="588" color="0,1,0"/>
    <vehicle id="vehicle_125" type="type_0" route="route_2" depart="588" color="0,1,0"/>
    <vehicle id="vehicle_126" type="type_0" route="route_0" depart="589" color="0,1,0"/>
    <vehicle id="vehicle_127" type="type_0" route="route_0" depart="590" color="0,1,0"/>
    <vehicle id="vehicle_128" type="type_0" route="route_2" depart="599" color="0,1,0"/>
    <vehicle id="vehicle_129" type="type_0" route="route_3" depart="607" color="0,1,0"/>
    <vehicle id="vehicle_130" type="type_0" route="route_4" depart="607" color="0,1,0"/>
    <vehicle id="vehicle_131" type="type_0" route="route_5" depart="609" color="0,1,0"/>
    <vehicle id="vehicle_132" type="type_0" route="route_5" depart="610" color="0,1,0"/>
    <vehicle id="vehicle_133" type="type_0" route="route_4" depart="618" color="0,1,0"/>
    <vehicle id="vehicle_134" type="type_0" route="route_1" depart="632" color="0,1,0"/>
    <vehicle id="vehicle_135" type="type_0" route="route_1" depart="634" color="0,1,0"/>
    <vehicle id="vehicle_136" type="type_0" route="route_1" depart="653" color="0,1,0"/>
    <vehicle id="vehicle_137" type="type_0" route="route_1" depart="655" color="0,1,0"/>
    <vehicle id="vehicle_138" type="type_0" route="route_3" depart="660" color="0,1,0"/>
    <vehicle id="vehicle_139" type="type_0" route="route_2" depart="662" color="0,1,0"/>
    <vehicle id="vehicle_140" type="type_0" route="route_2" depart="666" color="0,1,0"/>
    <vehicle id="vehicle_141" type="type_0" route="route_0" depart="669" color="0,1,0"/>
    <vehicle id="vehicle_142" type="type_0" route="route_5" depart="673" color="0,1,0"/>
    <vehicle id="vehicle_143" type="type_0" route="route_5" depart="682" color="0,1,0"/>
    <vehicle id="vehicle_144" type="type_0" route="route_2" depart="685" color="0,1,0"/>
    <vehicle id="vehicle_145" type="type_0" route="route_0" depart="692" color="0,1,0"/>
    <vehicle id="vehicle_146" type="type_0" route="route_1" depart="697" color="0,1,0"/>
    <vehicle id="vehicle_147" type="type_0" route="route_0" depart="699" color="0,1,0"/>
    <vehicle id="vehicle_148" type="type_0" route="route_2" depart="701" color="0,1,0"/>
    <vehicle id="vehicle_149" type="type_0" route="route_3" depart="703" color="0,1,0"/>
    <vehicle id="vehicle_150" type="type_0" route="route_4" depart="706" color="0,1,0"/>
    <vehicle id="vehicle_151" type="type_0" route="route_2" depart="707" color="0,1,0"/>
    <vehicle id="vehicle_152" type="type_0" route="route_3" depart="714" color="0,1,0"/>
    <vehicle id="vehicle_153" type="type_0" route="route_1" depart="720" color="0,1,0"/>
    <vehicle id="vehicle_154" type="type_0" route="route_3" depart="731" color="0,1,0"/>
    <vehicle id="vehicle_155" type="type_0" route="route_3" depart="734" color="0,1,0"/>
    <vehicle id="vehicle_156" type="type_0" route="route_0" depart="738" color="0,1,0"/>
    <vehicle id="vehicle_157" type="type_0" route="route_2" depart="738" color="0,1,0"/>
    <vehicle id="vehicle_158" type="type_0" route="route_1" depart="741" color="0,1,0"/>
    <vehicle id="vehicle_159" type="type_0" route="route_3" depart="741" color="0,1,0"/>
    <vehicle id="vehicle_160" type="type_0" route="route_5" depart="743" color="0,1,0"/>
    <vehicle id="vehicle_161" type="type_0" route="route_5" depart="745" color="0,1,0"/>
    <vehicle id="vehicle_162" type="type_0" route="route_1" depart="748" color="0,1,0"/>
    <vehicle id="vehicle_163" type="type_0" route="route_3" depart="748" color="0,1,0"/>
    <vehicle id="vehicle_164" type="type_0" route="route_0" depart="750" color="0,1,0"/>
    <vehicle id="vehicle_165" type="type_0" route="route_1" depart="755" color="0,1,0"/>
    <vehicle id="vehicle_166" type="type_0" route="route_1" depart="757" color="0,1,0"/>
    <vehicle id="vehicle_167" type="type_0" route="route_2" depart="764" color="0,1,0"/>
    <vehicle id="vehicle_168" type="type_0" route="route_1" depart="765" color="0,1,0"/>
    <vehicle id="vehicle_169" type="type_0" route="route_1" depart="772" color="0,1,0"/>
    <vehicle id="vehicle_170" type="type_0" route="route_5" depart="774" color="0,1,0"/>
    <vehicle id="vehicle_171" type="type_0" route="route_1" depart="776" color="0,1,0"/>
    <vehicle id="vehicle_172" type="type_0" route="route_2" depart="797" color="0,1,0"/>
    <vehicle id="vehicle_173" type="type_0" route="route_1" depart="801" color="0,1,0"/>
    <vehicle id="vehicle_174" type="type_0" route="route_0" depart="808" color="0,1,0"/>
    <vehicle id="vehicle_175" type="type_0" route="route_2" depart="816" color="0,1,0"/>
    <vehicle id="vehicle_176" type="type_0" route="route_3" depart="818" color="0,1,0"/>
    <vehicle id="vehicle_177" type="type_0" route="route_3" depart="821" color="0,1,0"/>
    <vehicle id="vehicle_178" type="type_0" route="route_2" depart="822" color="0,1,0"/>
    <vehicle id="vehicle_179" type="type_0" route="route_3" depart="837" color="0,1,0"/>
    <vehicle id="vehicle_180" type="type_0" route="route_2" depart="838" color="0,1,0"/>
    <vehicle id="vehicle_181" type="type_0" route="route_1" depart="847" color="0,1,0"/>
    <vehicle id="vehicle_182" type="type_0" route="route_3" depart="855" color="0,1,0"/>
    <vehicle id="vehicle_183" type="type_0" route="route_5" depart="856" color="0,1,0"/>
    <vehicle id="vehicle_184" type="type_0" route="route_0" depart="857" color="0,1,0"/>
    <vehicle id="vehicle_185" type="type_0" route="route_5" depart="859" color="0,1,0"/>
    <vehicle id="vehicle_186" type="type_0" route="route_4" depart="865" color="0,1,0"/>
    <vehicle id="vehicle_187" type="type_0" route="route_5" depart="871" color="0,1,0"/>
    <vehicle id="vehicle_188" type="type_0" route="route_0" depart="872" color="0,1,0"/>
    <vehicle id="vehicle_189" type="type_0" route="route_2" depart="877" color="0,1,0"/>
    <vehicle id="vehicle_190" type="type_0" route="route_0" depart="878" color="0,1,0"/>
    <vehicle id="vehicle_191" type="type_0" route="route_5" depart="879" color="0,1,0"/>
    <vehicle id="vehicle_192" type="type_0" route="route_1" depart="880" color="0,1,0"/>
    <vehicle id="vehicle_193" type="type_0" route="route_1" depart="888" color="0,1,0"/>
    <vehicle id="vehicle_194" type="type_0" route="route_5" depart="888" color="0,1,0"/>
    <vehicle id="vehicle_195" type="type_0" route="route_0" depart="894" color="0,1,0"/>
    <vehicle id="vehicle_196" type="type_0" route="route_2" depart="894" color="0,1,0"/>
    <vehicle id="vehicle_197" type="type_0" route="route_5" depart="905" color="0,1,0"/>
    <vehicle id="vehicle_198" type="type_0" route="route_5" depart="906" color="0,1,0"/>
    <vehicle id="vehicle_199" type="type_0" route="route_2" depart="917" color="0,1,0"/>
    <vehicle id="vehicle_200" type="type_0" route="route_4" depart="924" color="0,1,0"/>
    <vehicle id="vehicle_201" type="type_0" route="route_0" depart="953" color="0,1,0"/>
    <vehicle id="vehicle_202" type="type_0" route="route_1" depart="965" color="0,1,0"/>
    <vehicle id="vehicle_203" type="type_0" route="route_2" depart="971" color="0,1,0"/>
    <vehicle id="vehicle_204" type="type_0" route="route_2" depart="976" color="0,1,0"/>
    <vehicle id="vehicle_205" type="type_0" route="route_3" depart="979" color="0,1,0"/>
    <vehicle id="vehicle_206" type="type_0" route="route_3" depart="986" color="0,1,0"/>
    <vehicle id="vehicle_207" type="type_0" route="route_2" depart="995" color="0,1,0"/>
    <vehicle id="vehicle_208" type="type_0" route="route_2" depart="996" color="0,1,0"/>
    <vehicle id="vehicle_209" type="type_0" route="route_3" depart="1001" color="0,1,0"/>
    <vehicle id="vehicle_210" type="type_0" route="route_2" depart="1010" color="0,1,0"/>
    <vehicle id="vehicle_211" type="type_0" route="route_2" depart="1019" color="0,1,0"/>
    <vehicle id="vehicle_212" type="type_0" route="route_1" depart="1021" color="0,1,0"/>
    <vehicle id="vehicle_213" type="type_0" route="route_4" depart="1028" color="0,1,0"/>
    <vehicle id="vehicle_214" type="type_0" route="route_0" depart="1031" color="0,1,0"/>
    <vehicle id="vehicle_215" type="type_0" route="route_1" depart="1039" color="0,1,0"/>
    <vehicle id="vehicle_216" type="type_0" route="route_4" depart="1044" color="0,1,0"/>
    <vehicle id="vehicle_217" type="type_0" route="route_2" depart="1064" color="0,1,0"/>
    <vehicle id="vehicle_218" type="type_0" route="route_4" depart="1068" color="0,1,0"/>
    <vehicle id="vehicle_219" type="type_0" route="route_4" depart="1073" color="0,1,0"/>
    <vehicle id="vehicle_220" type="type_0" route="route_4" depart="1083" color="0,1,0"/>
    <vehicle id="vehicle_221" type="type_0" route="route_2" depart="1102" color="0,1,0"/>
    <vehicle id="vehicle_222" type="type_0" route="route_5" depart="1123" color="0,1,0"/>
    <vehicle id="vehicle_223" type="type_0" route="route_0" depart="1125" color="0,1,0"/>
    <vehicle id="vehicle_224" type="type_0" route="route_2" depart="1127" color="0,1,0"/>
    <vehicle id="vehicle_225" type="type_0" route="route_3" depart="1127" color="0,1,0"/>
    <vehicle id="vehicle_226" type="type_0" route="route_2" depart="1128" color="0,1,0"/>
    <vehicle id="vehicle_227" type="type_0" route="route_5" depart="1146" color="0,1,0"/>
    <vehicle id="vehicle_228" type="type_0" route="route_2" depart="1148" color="0,1,0"/>
    <vehicle id="vehicle_229" type="type_0" route="route_2" depart="1153" color="0,1,0"/>
    <vehicle id="vehicle_230" type="type_0" route="route_3" depart="1153" color="0,1,0"/>
    <vehicle id="vehicle_231" type="type_0" route="route_3" depart="1155" color="0,1,0"/>
    <vehicle id="vehicle_232" type="type_0" route="route_3" depart="1161" color="0,1,0"/>
    <vehicle id="vehicle_233" type="type_0" route="route_0" depart="1166" color="0,1,0"/>
    <vehicle id="vehicle_234" type="type_0" route="route_4" depart="1186" color="0,1,0"/>
    <vehicle id="vehicle_235" type="type_0" route="route_3" depart="1188" color="0,1,0"/>
    <vehicle id="vehicle_236" type="type_0" route="route_3" depart="1191" color="0,1,0"/>
    <vehicle id="vehicle_237" type="type_0" route="route_4" depart="1194" color="0,1,0"/>
    <vehicle id="vehicle_238" type="type_0" route="route_0" depart="1199" color="0,1,0"/>
    <vehicle id="vehicle_239" type="type_0" route="route_1" depart="1200" color="0,1,0"/>
    <vehicle id="vehicle_240" type="type_0" route="route_4" depart="1202" color="0,1,0"/>
    <vehicle id="vehicle_241" type="type_0" route="route_5" depart="1203" color="0,1,0"/>
    <vehicle id="vehicle_242" type="type_0" route="route_4" depart="1218" color="0,1,0"/>
    <vehicle id="vehicle_243" type="type_0" route="route_0" depart="1226" color="0,1,0"/>
    <vehicle id="vehicle_244" type="type_0" route="route_1" depart="1228" color="0,1,0"/>
    <vehicle id="vehicle_245" type="type_0" route="route_5" depart="1229" color="0,1,0"/>
    <vehicle id="vehicle_246" type="type_0" route="route_1" depart="1234" color="0,1,0"/>
    <vehicle id="vehicle_247" type="type_0" route="route_4" depart="1240" color="0,1,0"/>
    <vehicle id="vehicle_248" type="type_0" route="route_1" depart="1242" color="0,1,0"/>
    <vehicle id="vehicle_249" type="type_0" route="route_2" depart="1250" color="0,1,0"/>
    <vehicle id="vehicle_250" type="type_0" route="route_4" depart="1255" color="0,1,0"/>
    <vehicle id="vehicle_251" type="type_0" route="route_3" depart="1257" color="0,1,0"/>
    <vehicle id="vehicle_252" type="type_0" route="route_2" depart="1260" color="0,1,0"/>
    <vehicle id="vehicle_253" type="type_0" route="route_2" depart="1262" color="0,1,0"/>
    <vehicle id="vehicle_254" type="type_0" route="route_4" depart="1266" color="0,1,0"/>
    <vehicle id="vehicle_255" type="type_0" route="route_5" depart="1266" color="0,1,0"/>
    <vehicle id="vehicle_256" type="type_0" route="route_1" depart="1275" color="0,1,0"/>
    <vehicle id="vehicle_257" type="type_0" route="route_1" depart="1277" color="0,1,0"/>
    <vehicle id="vehicle_258" type="type_0" route="route_2" depart="1280" color="0,1,0"/>
    <vehicle id="vehicle_259" type="type_0" route="route_1" depart="1284" color="0,1,0"/>
    <vehicle id="vehicle_260" type="type_0" route="route_2" depart="1289" color="0,1,0"/>
    <vehicle id="vehicle_261" type="type_0" route="route_3" depart="1298" color="0,1,0"/>
    <vehicle id="vehicle_262" type="type_0" route="route_0" depart="1307" color="0,1,0"/>
    <vehicle id="vehicle_263" type="type_0" route="route_0" depart="1320" color="0,1,0"/>
    <vehicle id="vehicle_264" type="type_0" route="route_0" depart="1325" color="0,1,0"/>
    <vehicle id="vehicle_265" type="type_0" route="route_2" depart="1352" color="0,1,0"/>
    <vehicle id="vehicle_266" type="type_0" route="route_3" depart="1361" color="0,1,0"/>
    <vehicle id="vehicle_267" type="type_0" route="route_1" depart="1365" color="0,1,0"/>
    <vehicle id="vehicle_268" type="type_0" route="route_0" depart="1378" color="0,1,0"/>
    <vehicle id="vehicle_269" type="type_0" route="route_2" depart="1388" color="0,1,0"/>
    <vehicle id="vehicle_270" type="type_0" route="route_2" depart="1389" color="0,1,0"/>
    <vehicle id="vehicle_271" type="type_0" route="route_3" depart="1389" color="0,1,0"/>
    <vehicle id="vehicle_272" type="type_0" route="route_3" depart="1399" color="0,1,0"/>
    <vehicle id="vehicle_273" type="type_0" route="route_0" depart="1409" color="0,1,0"/>
    <vehicle id="vehicle_274" type="type_0" route="route_3" depart="1431" color="0,1,0"/>
    <vehicle id="vehicle_275" type="type_0" route="route_5" depart="1432" color="0,1,0"/>
    <vehicle id="vehicle_276" type="type_0" route="route_3" depart="1435" color="0,1,0"/>
    <vehicle id="vehicle_277" type="type_0" route="route_5" depart="1435" color="0,1,0"/>
    <vehicle id="vehicle_278" type="type_0" route="route_3" depart="1438" color="0,1,0"/>
    <vehicle id="vehicle_279" type="type_0" route="route_2" depart="1439" color="0,1,0"/>
    <vehicle id="vehicle_280" type="type_0" route="route_3" depart="1447" color="0,1,0"/>
    <vehicle id="vehicle_281" type="type_0" route="route_5" depart="1459" color="0,1,0"/>
    <vehicle id="vehicle_282" type="type_0" route="route_4" depart="1460" color="0,1,0"/>
    <vehicle id="vehicle_283" type="type_0" route="route_5" depart="1465" color="0,1,0"/>
    <vehicle id="vehicle_284" type="type_0" route="route_2" depart="1466" color="0,1,0"/>
    <vehicle id="vehicle_285" type="type_0" route="route_5" depart="1474" color="0,1,0"/>
    <vehicle id="vehicle_286" type="type_0" route="route_3" depart="1484" color="0,1,0"/>
    <vehicle id="vehicle_287" type="type_0" route="route_2" depart="1486" color="0,1,0"/>
    <vehicle id="vehicle_288" type="type_0" route="route_2" depart="1488" color="0,1,0"/>
    <vehicle id="vehicle_289" type="type_0" route="route_4" depart="1490" color="0,1,0"/>
    <vehicle id="vehicle_290" type="type_0" route="route_0" depart="1492" color="0,1,0"/>
    <vehicle id="vehicle_291" type="type_0" route="route_0" depart="1493" color="0,1,0"/>
    <vehicle id="vehicle_292" type="type_0" route="route_1" depart="1495" color="0,1,0"/>
    <vehicle id="vehicle_293" type="type_0" route="route_4" depart="1499" color="0,1,0"/>
    <vehicle id="vehicle_294" type="type_0" route="route_2" depart="1504" color="0,1,0"/>
    <vehicle id="vehicle_295" type="type_0" route="route_4" depart="1508" color="0,1,0"/>
    <vehicle id="vehicle_296" type="type_0" route="route_1" depart="1525" color="0,1,0"/>
    <vehicle id="vehicle_297" type="type_0" route="route_4" depart="1532" color="0,1,0"/>
    <vehicle id="vehicle_298" type="type_0" route="route_4" depart="1533" color="0,1,0"/>
    <vehicle id="vehicle_299" type="type_0" route="route_4" depart="1535" color="0,1,0"/>
    <vehicle id="vehicle_300" type="type_0" route="route_0" depart="1537" color="0,1,0"/>
    <vehicle id="vehicle_301" type="type_0" route="route_3" depart="1540" color="0,1,0"/>
    <vehicle id="vehicle_302" type="type_0" route="route_1" depart="1541" color="0,1,0"/>
    <vehicle id="vehicle_303" type="type_0" route="route_2" depart="1544" color="0,1,0"/>
    <vehicle id="vehicle_304" type="type_0" route="route_5" depart="1544" color="0,1,0"/>
    <vehicle id="vehicle_305" type="type_0" route="route_5" depart="1548" color="0,1,0"/>
    <vehicle id="vehicle_306" type="type_0" route="route_5" depart="1552" color="0,1,0"/>
    <vehicle id="vehicle_307" type="type_0" route="route_3" depart="1563" color="0,1,0"/>
    <vehicle id="vehicle_308" type="type_0" route="route_5" depart="1563" color="0,1,0"/>
    <vehicle id="vehicle_309" type="type_0" route="route_2" depart="1570" color="0,1,0"/>
    <vehicle id="vehicle_310" type="type_0" route="route_1" depart="1594" color="0,1,0"/>
    <vehicle id="vehicle_311" type="type_0" route="route_4" depart="1599" color="0,1,0"/>
    <vehicle id="vehicle_312" type="type_0" route="route_4" depart="1606" color="0,1,0"/>
    <vehicle id="vehicle_313" type="type_0" route="route_0" depart="1607" color="0,1,0"/>
    <vehicle id="vehicle_314" type="type_0" route="route_0" depart="1610" color="0,1,0"/>
    <vehicle id="vehicle_315" type="type_0" route="route_5" depart="1610" color="0,1,0"/>
    <vehicle id="vehicle_316" type="type_0" route="route_4" depart="1614" color="0,1,0"/>
    <vehicle id="vehicle_317" type="type_0" route="route_2" depart="1629" color="0,1,0"/>
    <vehicle id="vehicle_318" type="type_0" route="route_4" depart="1629" color="0,1,0"/>
    <vehicle id="vehicle_319" type="type_0" route="route_3" depart="1631" color="0,1,0"/>
    <vehicle id="vehicle_320" type="type_0" route="route_4" depart="1634" color="0,1,0"/>
    <vehicle id="vehicle_321" type="type_0" route="route_0" depart="1655" color="0,1,0"/>
    <vehicle id="vehicle_322" type="type_0" route="route_2" depart="1658" color="0,1,0"/>
    <vehicle id="vehicle_323" type="type_0" route="route_1" depart="1662" color="0,1,0"/>
    <vehicle id="vehicle_324" type="type_0" route="route_5" depart="1674" color="0,1,0"/>
    <vehicle id="vehicle_325" type="type_0" route="route_5" depart="1675" color="0,1,0"/>
    <vehicle id="vehicle_326" type="type_0" route="route_4" depart="1693" color="0,1,0"/>